LAMMPS (23 Jun 2022 - Update 1)
units        metal
boundary     p p p
atom_style   charge
atom_modify  sort 10000 1.0
read_data    kubota1.lmp
Reading data file ...
  orthogonal box = (0 0 0) to (22.56 22.56 22.56)
  reading atoms ...
  512 atoms
pair_style   born/coul/long 10.0
kspace_style ewald 1e-5
pair_coeff   1 1 0.013747 0.3170 3.300 1.036 0 10.0
pair_coeff   1 2 0.013747 0.3170 3.610 3.109 0 10.0
pair_coeff   2 2 0.013747 0.3170 3.920 9.328 0 10.0
neighbor     4.0 bin
neigh_modify every 1 delay 0 check yes
timestep     0.001
velocity     all create 300 318796474 mom yes rot yes dist gaussian
thermo_style custom step temp ke pe etotal press vol density
thermo       1000
fix          1 all nve
fix          2 all box/relax aniso 0.0 fixedpoint 0.0 0.0 0.0
min_style    cg
minimize     1e-25 1e-25 50000 100000
Ewald initialization ...
  G vector (1/distance) = 0.30821542
  estimated absolute RMS force accuracy = 0.00016771884
  estimated relative force accuracy = 1.1647429e-05
  KSpace vectors: actual max1d max3d = 709 7 1687
                  kxmax kymax kzmax  = 7 7 7
Generated 0 of 1 mixed pair_coeff terms from geometric mixing rule
  update every 1 steps, delay 0 steps, check yes
Step          Temp          KinEng         PotEng         TotEng         Press          Volume        Density
0   300            19.81558      -2024.163      -2004.3474      8818.123       11481.993      2.1637273
Loop time of 0.0569368 on 16 procs for 89 steps with 512 atoms

Minimization stats:
  Stopping criterion = linesearch alpha is zero
  Energy initial, next-to-last, final =
  Force two-norm initial, final = 86.57598 0.00013789686
  Force max component initial, final = 49.984666 7.9614788e-05
  Final line search alpha, max atom move = 0.40689831 3.2395122e-05
  Iterations, force evaluations = 89 93

dump         1 all custom 1 stable.final id type xs ys zs
dump_modify  1 sort id
run          0
Ewald initialization ...
  G vector (1/distance) = 0.30800626
  estimated absolute RMS force accuracy = 0.00017513383
  estimated relative force accuracy = 1.2162371e-05
  KSpace vectors: actual max1d max3d = 709 7 1687
                  kxmax kymax kzmax  = 7 7 7
Generated 0 of 1 mixed pair_coeff terms from geometric mixing rule
Step          Temp          KinEng         PotEng         TotEng         Press          Volume        Density
89   300            19.81558      -2024.799      -2004.9834      1796.4817      11781.833      2.1086618
Loop time of 2.31725e-06 on 16 procs for 0 steps with 512 atoms

undump       1
unfix        1
unfix        2

dump         1 all atom 100 nacl_amorphous.xyz
fix          1 all nvt temp 300 300 0.05
run          10000
Ewald initialization ...
  G vector (1/distance) = 0.30800626
  estimated absolute RMS force accuracy = 0.00017513383
  estimated relative force accuracy = 1.2162371e-05
  KSpace vectors: actual max1d max3d = 709 7 1687
                  kxmax kymax kzmax  = 7 7 7
Generated 0 of 1 mixed pair_coeff terms from geometric mixing rule
Step          Temp          KinEng         PotEng         TotEng         Press          Volume        Density
89   300            19.81558      -2024.799      -2004.9834      1796.4817      11781.833      2.1086618
Averages over the last 6 of 12 rows, steps 6000 to 10089:
Temp KinEng PotEng TotEng Press Volume Density
290.639 19.1973 -2005.53 -1986.33 8527.37 11781.8 2.10866
Loop time of 8.0229 on 16 procs for 10000 steps with 512 atoms

unfix        1
velocity     all create 1500 379278227 mom yes rot yes dist gaussian
fix          1 all nvt temp 1500 1500 0.05
run          100000
Ewald initialization ...
  G vector (1/distance) = 0.30800626
  estimated absolute RMS force accuracy = 0.00017513383
  estimated relative force accuracy = 1.2162371e-05
  KSpace vectors: actual max1d max3d = 709 7 1687
                  kxmax kymax kzmax  = 7 7 7
Generated 0 of 1 mixed pair_coeff terms from geometric mixing rule
Step          Temp          KinEng         PotEng         TotEng         Press          Volume        Density
10089   1500           99.077901     -2006.1101     -1907.0322      15516.863      11781.833      2.1086618
Averages over the last 51 of 102 rows, steps 61000 to 110089:
Temp KinEng PotEng TotEng Press Volume Density
1505.66 99.4519 -1926.61 -1827.16 39191.1 11781.8 2.10866
Loop time of 51.1796 on 16 procs for 100000 steps with 512 atoms

unfix        1
velocity     all create 1500 379278227 mom yes rot yes dist gaussian
fix          1 all npt temp 1500 300 0.05 x 0 0 0.05 y 0 0 0.05 z 0 0 0.05
run          50000
Ewald initialization ...
  G vector (1/distance) = 0.30800626
  estimated absolute RMS force accuracy = 0.00017513383
  estimated relative force accuracy = 1.2162371e-05
  KSpace vectors: actual max1d max3d = 709 7 1687
                  kxmax kymax kzmax  = 7 7 7
Generated 0 of 1 mixed pair_coeff terms from geometric mixing rule
Step          Temp          KinEng         PotEng         TotEng         Press          Volume        Density
110089   1500           99.077901     -1924.6457     -1825.5678      40901.326      11781.833      2.1086618
Averages over the last 26 of 52 rows, steps 136000 to 160089:
Temp KinEng PotEng TotEng Press Volume Density
577.814 38.1657 -1925.29 -1887.12 17.648 15664.6 1.59312
Loop time of 35.3462 on 16 procs for 50000 steps with 512 atoms

unfix        1
dump         2 all custom 1 amorphous.final id type xs ys zs
dump_modify  2 sort id
run          0
Ewald initialization ...
  G vector (1/distance) = 0.3065172
  estimated absolute RMS force accuracy = 0.00015160152
  estimated relative force accuracy = 1.0528143e-05
  KSpace vectors: actual max1d max3d = 999 8 2456
                  kxmax kymax kzmax  = 7 8 8
Generated 0 of 1 mixed pair_coeff terms from geometric mixing rule
Step          Temp          KinEng         PotEng         TotEng         Press          Volume        Density
160089   295.344        19.508043     -1958.1666     -1938.6585      127.83915      14147.958      1.7560062
Loop time of 1.99081e-06 on 16 procs for 0 steps with 512 atoms

undump       2
undump       1
